
 OpenBabel01102510233D

 49 50  0  0  0  0  0  0  0  0999 V2000
    2.8953    1.6305    0.3798 C   0  0  0  0  0  0  0  0  0  0  0  0
    2.3762    2.0012    1.7002 N   0  0  0  0  0  0  0  0  0  0  0  0
    2.8412    1.0515    2.7384 C   0  0  0  0  0  0  0  0  0  0  0  0
    2.3650   -0.4128    2.5717 C   0  0  0  0  0  0  0  0  0  0  0  0
    2.8525   -1.3298    3.6122 N   0  0  0  0  0  0  0  0  0  0  0  0
    2.3252   -1.0057    4.9421 C   0  0  0  0  0  0  0  0  0  0  0  0
    2.8489   -1.9622    5.9977 C   0  0  0  0  0  0  0  0  0  0  0  0
    4.0214   -1.5629    6.5775 N   0  0  0  0  0  0  0  0  0  0  0  0
    4.5208   -2.4052    7.5161 C   0  0  0  0  0  0  0  0  0  0  0  0
    5.7027   -2.2438    8.2820 C   0  0  0  0  0  0  0  0  0  0  0  0
    6.6506   -1.1442    8.2395 C   0  0  0  0  0  0  0  0  0  0  0  0
    7.6536   -1.0899    8.9392 O   0  0  0  0  0  0  0  0  0  0  0  0
    6.3422   -0.1618    7.3516 O   0  0  0  0  0  0  0  0  0  0  0  0
    5.7875   -3.3589    9.1003 C   0  0  0  0  0  0  0  0  0  0  0  0
    4.7109   -4.1683    8.8457 N   0  0  0  0  0  0  0  0  0  0  0  0
    4.4536   -5.4341    9.4959 C   0  0  0  0  0  0  0  0  0  0  0  0
    3.9141   -3.6018    7.8780 C   0  0  0  0  0  0  0  0  0  0  0  0
    2.7239   -4.0130    7.2750 C   0  0  0  0  0  0  0  0  0  0  0  0
    2.1921   -3.1606    6.3054 C   0  0  0  0  0  0  0  0  0  0  0  0
    0.5819   -3.7121    5.4642 Br  0  0  0  0  0  0  0  0  0  0  0  0
    2.8154    3.3654    2.0922 C   0  0  0  0  0  0  0  0  0  0  0  0
    2.2351    4.4703    1.2186 C   0  0  0  0  0  0  0  0  0  0  0  0
    2.8014    6.0640    1.7810 S   0  0  0  0  0  0  0  0  0  0  0  0
    2.0933    7.1660    0.5828 C   0  0  0  0  0  0  0  0  0  0  0  0
    2.1833    6.3459    3.0615 O   0  0  0  0  0  0  0  0  0  0  0  0
    4.2418    6.1128    1.6189 O   0  0  0  0  0  0  0  0  0  0  0  0
    2.5208    0.6509    0.0682 H   0  0  0  0  0  0  0  0  0  0  0  0
    3.9903    1.6111    0.3577 H   0  0  0  0  0  0  0  0  0  0  0  0
    2.5451    2.3201   -0.3939 H   0  0  0  0  0  0  0  0  0  0  0  0
    2.4547    1.4154    3.6972 H   0  0  0  0  0  0  0  0  0  0  0  0
    3.9373    1.0683    2.8064 H   0  0  0  0  0  0  0  0  0  0  0  0
    2.7343   -0.8144    1.6224 H   0  0  0  0  0  0  0  0  0  0  0  0
    1.2704   -0.4540    2.5209 H   0  0  0  0  0  0  0  0  0  0  0  0
    3.8720   -1.2938    3.6508 H   0  0  0  0  0  0  0  0  0  0  0  0
    1.2308   -0.9804    4.9427 H   0  0  0  0  0  0  0  0  0  0  0  0
    2.6511   -0.0043    5.2460 H   0  0  0  0  0  0  0  0  0  0  0  0
    5.5029   -0.3639    6.8787 H   0  0  0  0  0  0  0  0  0  0  0  0
    6.5369   -3.6253    9.8366 H   0  0  0  0  0  0  0  0  0  0  0  0
    5.2468   -5.6435   10.2176 H   0  0  0  0  0  0  0  0  0  0  0  0
    4.4311   -6.2146    8.7311 H   0  0  0  0  0  0  0  0  0  0  0  0
    3.4909   -5.3677   10.0092 H   0  0  0  0  0  0  0  0  0  0  0  0
    2.2417   -4.9460    7.5439 H   0  0  0  0  0  0  0  0  0  0  0  0
    3.9118    3.4219    2.1027 H   0  0  0  0  0  0  0  0  0  0  0  0
    2.4865    3.5576    3.1226 H   0  0  0  0  0  0  0  0  0  0  0  0
    1.1415    4.4744    1.2577 H   0  0  0  0  0  0  0  0  0  0  0  0
    2.5628    4.3841    0.1796 H   0  0  0  0  0  0  0  0  0  0  0  0
    1.0059    7.0867    0.6309 H   0  0  0  0  0  0  0  0  0  0  0  0
    2.4580    6.8874   -0.4079 H   0  0  0  0  0  0  0  0  0  0  0  0
    2.4086    8.1827    0.8244 H   0  0  0  0  0  0  0  0  0  0  0  0
  1  2  1  0  0  0  0
  1 27  1  0  0  0  0
  1 28  1  0  0  0  0
  1 29  1  0  0  0  0
  2  3  1  0  0  0  0
  2 21  1  0  0  0  0
  3  4  1  0  0  0  0
  3 30  1  0  0  0  0
  3 31  1  0  0  0  0
  4  5  1  0  0  0  0
  4 32  1  0  0  0  0
  4 33  1  0  0  0  0
  5  6  1  0  0  0  0
  5 34  1  0  0  0  0
  6  7  1  0  0  0  0
  6 35  1  0  0  0  0
  6 36  1  0  0  0  0
  7  8  1  0  0  0  0
  7 19  2  0  0  0  0
  8  9  2  0  0  0  0
  9 10  1  0  0  0  0
  9 17  1  0  0  0  0
 10 11  1  0  0  0  0
 10 14  2  0  0  0  0
 11 12  2  0  0  0  0
 11 13  1  0  0  0  0
 13 37  1  0  0  0  0
 14 15  1  0  0  0  0
 14 38  1  0  0  0  0
 15 16  1  0  0  0  0
 15 17  1  0  0  0  0
 16 39  1  0  0  0  0
 16 40  1  0  0  0  0
 16 41  1  0  0  0  0
 17 18  2  0  0  0  0
 18 19  1  0  0  0  0
 18 42  1  0  0  0  0
 19 20  1  0  0  0  0
 21 22  1  0  0  0  0
 21 43  1  0  0  0  0
 21 44  1  0  0  0  0
 22 23  1  0  0  0  0
 22 45  1  0  0  0  0
 22 46  1  0  0  0  0
 23 24  1  0  0  0  0
 23 25  2  0  0  0  0
 23 26  2  0  0  0  0
 24 47  1  0  0  0  0
 24 48  1  0  0  0  0
 24 49  1  0  0  0  0
M  END
